--Link1--
%chk=molecule
#HF/6-31G* SCF=tight Test Pop=MK iop(6/33=2) NoSymm iop(6/42=6) opt

remark line goes here

-1   1
    C      0.1500         -0.3530         -0.8950     
    C      1.4320         -0.3370         -0.5010     
    C      0.5060          1.5270          0.1420     
    N     -0.4180          0.8320         -0.4820     
    H     -0.4050         -1.0910         -1.4310     
    H      2.2130         -1.0560         -0.6260     
    H      0.3600          2.4950          0.5740     
    N      1.6390          0.8580          0.1530     
    C      2.9040          1.3010          0.7460     
    H      3.2070          0.5980          1.5070     
    H      3.6570          1.3630         -0.0250     
    H      2.7610          2.2740          1.1890     
    C     -1.8270          1.2320         -0.6760     
    H     -1.8720          2.3020         -0.5260     
    H     -2.0680          1.0360         -1.7120     
    C     -2.7720          0.4980          0.2720     
    H     -2.6760         -0.5730          0.1220     
    H     -2.4770          0.7020          1.2980     
    C     -4.2280          0.9220          0.0520     
    H     -4.3180          1.9960          0.1970     
    H     -4.5100          0.7230         -0.9790     
    C     -5.1900          0.1990          0.9930     
    H     -4.9540          0.4050          2.0320     
    H     -6.2100          0.5180          0.8150     
    H     -5.1490         -0.8760          0.8470     

