--Link1--
%chk=molecule
#HF/6-31G* SCF=tight Test Pop=MK iop(6/33=2) NoSymm iop(6/42=6) opt

remark line goes here

-1   1
    N     -0.3280          0.5320          1.5670     
    S     -1.2880         -0.3700          0.6950     
    S     -0.7600          1.3870          2.8090     
    O     -1.9640         -1.4100          1.4120     
    O     -2.0310          0.3500         -0.2970     
    O      0.0820          2.5370          2.9350     
    O     -2.1750          1.5430          2.9650     
    C      0.0070         -1.2300         -0.2450     
    C     -0.2610          0.3560          4.2230     
    F     -0.5730         -2.0700         -1.0810     
    F      0.7380         -0.3990         -0.9500     
    F      0.8000         -1.9220          0.5400     
    F      1.0300          0.1080          4.1970     
    F     -0.9000         -0.7880          4.2380     
    F     -0.5300          0.9920          5.3460     

